12
Benzene molecule
C    0.000000    1.395000    0.000000
C    1.208000    0.697500    0.000000
C    1.208000   -0.697500    0.000000
C    0.000000   -1.395000    0.000000
C   -1.208000   -0.697500    0.000000
C   -1.208000    0.697500    0.000000
H    0.000000    2.479000    0.000000
H    2.147000    1.239500    0.000000
H    2.147000   -1.239500    0.000000
H    0.000000   -2.479000    0.000000
H   -2.147000   -1.239500    0.000000
H   -2.147000    1.239500    0.000000 