60
C60 Fullerene
C    0.000000    3.512000    2.804000
C    0.000000    4.368000    1.402000
C    0.000000    3.512000    0.000000
C    0.000000    1.756000    0.000000
C    0.000000    0.900000    1.402000
C    0.000000    1.756000    2.804000
C    1.521000    3.512000    1.402000
C    1.521000    4.368000    0.000000
C    1.521000    3.512000   -1.402000
C    1.521000    1.756000   -1.402000
C    1.521000    0.900000    0.000000
C    1.521000    1.756000    1.402000
C    2.804000    3.512000    0.000000
C    2.804000    4.368000   -1.402000
C    2.804000    3.512000   -2.804000
C    2.804000    1.756000   -2.804000
C    2.804000    0.900000   -1.402000
C    2.804000    1.756000    0.000000
C    3.512000    1.756000    1.402000
C    3.512000    0.900000    0.000000
C    3.512000    1.756000   -1.402000
C    3.512000    3.512000    0.000000
C    3.512000    4.368000   -1.402000
C    3.512000    3.512000   -2.804000
C    4.368000    1.756000    0.000000
C    4.368000    0.900000   -1.402000
C    4.368000    1.756000   -2.804000
C    4.368000    3.512000   -1.402000
C    4.368000    4.368000   -2.804000
C    4.368000    3.512000   -4.206000
C    3.512000    1.756000   -4.206000
C    3.512000    0.900000   -2.804000
C    3.512000    1.756000   -1.402000
C    2.804000    1.756000   -4.206000
C    2.804000    0.900000   -2.804000
C    2.804000    1.756000   -1.402000
C    1.521000    1.756000   -4.206000
C    1.521000    0.900000   -2.804000
C    1.521000    1.756000   -1.402000
C    0.000000    1.756000   -4.206000
C    0.000000    0.900000   -2.804000
C    0.000000    1.756000   -1.402000
C   -1.521000    1.756000   -4.206000
C   -1.521000    0.900000   -2.804000
C   -1.521000    1.756000   -1.402000
C   -2.804000    1.756000   -4.206000
C   -2.804000    0.900000   -2.804000
C   -2.804000    1.756000   -1.402000
C   -3.512000    1.756000   -2.804000
C   -3.512000    0.900000   -1.402000
C   -3.512000    1.756000    0.000000
C   -3.512000    3.512000   -1.402000
C   -3.512000    4.368000   -2.804000
C   -3.512000    3.512000   -4.206000
C   -4.368000    1.756000   -1.402000
C   -4.368000    0.900000    0.000000
C   -4.368000    1.756000    1.402000
C   -4.368000    3.512000    0.000000
C   -4.368000    4.368000   -1.402000
C   -4.368000    3.512000   -2.804000
C   -3.512000    1.756000    2.804000
C   -3.512000    0.900000    1.402000
C   -3.512000    1.756000    0.000000
C   -2.804000    1.756000    2.804000
C   -2.804000    0.900000    1.402000
C   -2.804000    1.756000    0.000000
C   -1.521000    1.756000    2.804000
C   -1.521000    0.900000    1.402000
C   -1.521000    1.756000    0.000000 